201
title
O    2.180825100000e+01 2.536749000000e+00 0.000000000000e+00
Al   2.305228050000e+01 3.045559499999e+00 8.861579999999e-01
Si   2.129944050000e+01 1.292719500000e+00 -8.861579999998e-01
O    2.353918050000e+01 1.855089000000e+00 1.855089000000e+00
O    2.248991100000e+01 8.058194999999e-01 -1.855089000000e+00
O    2.086609950000e+01 8.277299999999e-02 8.277299999999e-02
O    2.426222700000e+01 3.478900499999e+00 -8.277299999999e-02
O    2.259946350000e+01 4.309064999999e+00 1.777185000000e+00
O    2.003593500000e+01 1.745536500000e+00 -1.777185000000e+00
O    2.180825100000e+01 0.000000000000e+00 2.536749000000e+00
O    2.434500000000e+01 2.536749000000e+00 -2.536749000000e+00
Si   2.305228050000e+01 8.861579999999e-01 3.045559499999e+00
Si   2.345884200000e+01 1.292719500000e+00 -3.045559499999e+00
Si   2.129944050000e+01 -8.861579999998e-01 1.292719500000e+00
Si   2.523115800000e+01 3.045559499999e+00 -1.292719500000e+00
Si   2.305228050000e+01 5.200091999999e+00 3.040690499999e+00
Si   1.914490800000e+01 1.292719500000e+00 -3.040690499999e+00
O    2.259946350000e+01 1.777185000000e+00 4.309064999999e+00
O    2.256781500000e+01 1.745536500000e+00 -4.309064999999e+00
O    2.248991100000e+01 -1.855089000000e+00 8.058194999999e-01
O    2.620008900000e+01 1.855089000000e+00 -8.058194999999e-01
O    2.353918050000e+01 4.231160999999e+00 4.231160999999e+00
O    2.011383900000e+01 8.058194999999e-01 -4.231160999999e+00
O    2.003593500000e+01 -1.777185000000e+00 1.745536500000e+00
O    2.612218500000e+01 4.309064999999e+00 -1.745536500000e+00
O    2.426222700000e+01 -8.277299999998e-02 3.478900499999e+00
O    2.442777300000e+01 8.277299999999e-02 -3.478900499999e+00
O    2.180825100000e+01 6.086249999999e+00 3.549500999999e+00
O    1.825875000000e+01 2.536749000000e+00 -3.549500999999e+00
O    2.426222700000e+01 6.169022999999e+00 2.607349500000e+00
O    1.817597700000e+01 8.277299999999e-02 -2.607349500000e+00
Si   2.305228050000e+01 3.040690499999e+00 5.200091999999e+00
Si   2.130430950000e+01 1.292719500000e+00 -5.200091999999e+00
O    2.620008900000e+01 -8.058194999999e-01 1.855089000000e+00
O    2.515081950000e+01 -1.855089000000e+00 -1.855089000000e+00
Si   2.345884200000e+01 -3.045559499999e+00 1.292719500000e+00
Si   2.739055950000e+01 8.861579999999e-01 -1.292719500000e+00
Si   2.523115800000e+01 -1.292719500000e+00 3.045559499999e+00
Si   2.563771950000e+01 -8.861579999998e-01 -3.045559499999e+00
O    2.180825100000e+01 3.549500999999e+00 6.086249999999e+00
O    2.079549900000e+01 2.536749000000e+00 -6.086249999999e+00
O    2.434500000000e+01 -2.536749000000e+00 2.536749000000e+00
O    2.688174900000e+01 0.000000000000e+00 -2.536749000000e+00
O    1.817597700000e+01 -2.607349500000e+00 8.277299999999e-02
O    2.695234950000e+01 6.169022999999e+00 -8.277299999999e-02
Si   1.914490800000e+01 -3.040690499999e+00 1.292719500000e+00
Si   2.738569050000e+01 5.200091999999e+00 -1.292719500000e+00
Si   2.129944050000e+01 6.972407999999e+00 4.793530499999e+00
Si   1.737259200000e+01 3.045559499999e+00 -4.793530499999e+00
O    2.442777300000e+01 -3.478900499999e+00 8.277299999999e-02
O    2.782390050000e+01 -8.277299999998e-02 -8.277299999999e-02
O    2.426222700000e+01 2.607349500000e+00 6.169022999999e+00
O    2.173765050000e+01 8.277299999999e-02 -6.169022999999e+00
Si   2.523115800000e+01 7.378969499999e+00 3.040690499999e+00
Si   1.696603050000e+01 -8.861579999998e-01 -3.040690499999e+00
Si   2.739055950000e+01 -1.292719500000e+00 8.861579999999e-01
Si   2.563771950000e+01 -3.045559499999e+00 -8.861579999998e-01
O    2.086609950000e+01 6.003476999999e+00 6.003476999999e+00
O    1.834152300000e+01 3.478900499999e+00 -6.003476999999e+00
O    2.011383900000e+01 -4.231160999999e+00 8.058194999999e-01
O    2.857616100000e+01 4.231160999999e+00 -8.058194999999e-01
O    2.612218500000e+01 7.831786499999e+00 1.777185000000e+00
O    1.651321350000e+01 -1.777185000000e+00 -1.777185000000e+00
O    2.003593500000e+01 7.863434999999e+00 4.340713499999e+00
O    1.648156500000e+01 4.309064999999e+00 -4.340713499999e+00
O    2.256781500000e+01 -4.309064999999e+00 1.745536500000e+00
O    2.865406500000e+01 1.777185000000e+00 -1.745536500000e+00
O    2.688174900000e+01 -2.536749000000e+00 0.000000000000e+00
Si   2.129944050000e+01 4.793530499999e+00 6.972407999999e+00
Si   1.955146950000e+01 3.045559499999e+00 -6.972407999999e+00
Si   2.738569050000e+01 7.378969499999e+00 8.861579999999e-01
Si   1.696603050000e+01 -3.040690499999e+00 -8.861579999998e-01
O    2.612218500000e+01 -1.745536500000e+00 4.309064999999e+00
O    2.609053650000e+01 -1.777185000000e+00 -4.309064999999e+00
O    2.434500000000e+01 8.622998999999e+00 3.549500999999e+00
O    1.825875000000e+01 -3.549500999999e+00 2.536749000000e+00
O    2.789450100000e+01 6.086249999999e+00 -2.536749000000e+00
O    1.572200100000e+01 0.000000000000e+00 -3.549500999999e+00
O    2.620008900000e+01 6.892069499999e+00 4.231160999999e+00
O    1.745293050000e+01 -1.855089000000e+00 -4.231160999999e+00
O    2.248991100000e+01 7.941338999999e+00 5.280430499999e+00
O    1.640366100000e+01 1.855089000000e+00 -5.280430499999e+00
Si   2.130430950000e+01 -5.200091999999e+00 1.292719500000e+00
Si   2.954509200000e+01 3.040690499999e+00 -1.292719500000e+00
Si   2.523115800000e+01 3.040690499999e+00 7.378969499999e+00
Si   2.130430950000e+01 -8.861579999998e-01 -7.378969499999e+00
O    2.857616100000e+01 6.892069499999e+00 1.855089000000e+00
O    1.745293050000e+01 -4.231160999999e+00 -1.855089000000e+00
O    2.003593500000e+01 4.340713499999e+00 7.863434999999e+00
O    2.000428650000e+01 4.309064999999e+00 -7.863434999999e+00
O    2.865406500000e+01 -1.745536500000e+00 1.777185000000e+00
O    2.609053650000e+01 -4.309064999999e+00 -1.777185000000e+00
Si   2.345884200000e+01 9.131809499998e+00 4.793530499999e+00
Si   1.521319050000e+01 8.861579999999e-01 -4.793530499999e+00
O    2.620008900000e+01 4.231160999999e+00 6.892069499999e+00
O    2.011383900000e+01 -1.855089000000e+00 -6.892069499999e+00
O    2.248991100000e+01 5.280430499999e+00 7.941338999999e+00
O    1.906456950000e+01 1.855089000000e+00 -7.941338999999e+00
O    2.695234950000e+01 -8.277299999998e-02 6.169022999999e+00
O    2.442777300000e+01 -2.607349500000e+00 -6.169022999999e+00
Si   2.738569050000e+01 -1.292719500000e+00 5.200091999999e+00
Si   2.563771950000e+01 -3.040690499999e+00 -5.200091999999e+00
Si   1.914490800000e+01 9.126940499998e+00 4.793530499999e+00
Si   1.521805950000e+01 5.200091999999e+00 -4.793530499999e+00
O    2.789450100000e+01 8.622998999999e+00 0.000000000000e+00
O    1.572200100000e+01 -3.549500999999e+00 0.000000000000e+00
O    2.857616100000e+01 -8.058194999999e-01 4.231160999999e+00
O    2.515081950000e+01 -4.231160999999e+00 -4.231160999999e+00
O    1.825875000000e+01 9.635750999998e+00 3.549500999999e+00
O    1.470924900000e+01 6.086249999999e+00 -3.549500999999e+00
O    2.173765050000e+01 -6.169022999999e+00 8.277299999999e-02
O    3.051402299999e+01 2.607349500000e+00 -8.277299999999e-02
O    2.612218500000e+01 1.777185000000e+00 7.831786499999e+00
O    2.256781500000e+01 -1.777185000000e+00 -7.831786499999e+00
O    2.256781500000e+01 1.039531500000e+01 4.340713499999e+00
O    1.394968500000e+01 1.777185000000e+00 -4.340713499999e+00
Si   2.739055950000e+01 7.378969499999e+00 5.200091999999e+00
Si   1.696603050000e+01 -3.045559499999e+00 -5.200091999999e+00
O    2.434500000000e+01 3.549500999999e+00 8.622998999999e+00
O    2.079549900000e+01 -6.086249999999e+00 2.536749000000e+00
O    3.043124999999e+01 3.549500999999e+00 -2.536749000000e+00
O    2.079549900000e+01 0.000000000000e+00 -8.622998999999e+00
Si   1.737259200000e+01 -4.793530499999e+00 3.045559499999e+00
Si   2.913853050000e+01 6.972407999999e+00 -3.045559499999e+00
Si   2.954509200000e+01 -1.292719500000e+00 3.040690499999e+00
Si   2.563771950000e+01 -5.200091999999e+00 -3.040690499999e+00
O    1.817597700000e+01 8.693599499999e+00 6.003476999999e+00
O    1.565140050000e+01 6.169022999999e+00 -6.003476999999e+00
O    2.782390050000e+01 6.169022999999e+00 6.169022999999e+00
O    1.817597700000e+01 -3.478900499999e+00 -6.169022999999e+00
Si   2.738569050000e+01 8.861579999999e-01 7.378969499999e+00
Si   2.345884200000e+01 -3.040690499999e+00 -7.378969499999e+00
O    3.051402299999e+01 -8.277299999998e-02 2.607349500000e+00
O    2.442777300000e+01 -6.169022999999e+00 -2.607349500000e+00
Si   2.345884200000e+01 4.793530499999e+00 9.131809499998e+00
Si   1.955146950000e+01 8.861579999999e-01 -9.131809499998e+00
O    2.011383900000e+01 1.031741100000e+01 5.280430499999e+00
O    1.402758900000e+01 4.231160999999e+00 -5.280430499999e+00
O    2.442777300000e+01 9.565150499998e+00 6.003476999999e+00
O    1.477984950000e+01 -8.277299999998e-02 -6.003476999999e+00
Si   2.954509200000e+01 7.378969499999e+00 3.045559499999e+00
Si   1.696603050000e+01 -5.200091999999e+00 -3.045559499999e+00
Si   2.739055950000e+01 5.200091999999e+00 7.378969499999e+00
Si   1.914490800000e+01 -3.045559499999e+00 -7.378969499999e+00
O    2.865406500000e+01 7.831786499999e+00 4.309064999999e+00
O    1.651321350000e+01 -4.309064999999e+00 -4.309064999999e+00
O    1.640366100000e+01 -5.280430499999e+00 1.855089000000e+00
O    2.962543049999e+01 7.941338999999e+00 -1.855089000000e+00
O    2.857616100000e+01 1.855089000000e+00 6.892069499999e+00
O    2.248991100000e+01 -4.231160999999e+00 -6.892069499999e+00
O    1.648156500000e+01 1.042696350000e+01 1.777185000000e+00
O    1.391803650000e+01 7.863434999999e+00 -1.777185000000e+00
O    1.648156500000e+01 -4.340713499999e+00 4.309064999999e+00
O    2.868571350000e+01 7.863434999999e+00 -4.309064999999e+00
O    3.123706949999e+01 4.231160999999e+00 1.855089000000e+00
O    2.011383900000e+01 -6.892069499999e+00 -1.855089000000e+00
Si   1.914490800000e+01 4.793530499999e+00 9.126940499998e+00
Si   1.955146950000e+01 5.200091999999e+00 -9.126940499998e+00
O    1.834152300000e+01 -6.003476999999e+00 3.478900499999e+00
O    3.034847699999e+01 6.003476999999e+00 -3.478900499999e+00
Si   1.521319050000e+01 -4.793530499999e+00 8.861579999999e-01
Si   2.913853050000e+01 9.131809499998e+00 -8.861579999998e-01
Si   1.737259200000e+01 1.087978050000e+01 3.040690499999e+00
Si   1.346521950000e+01 6.972407999999e+00 -3.040690499999e+00
Si   3.172396949999e+01 3.040690499999e+00 8.861579999999e-01
Si   2.130430950000e+01 -7.378969499999e+00 -8.861579999998e-01
Si   2.130430950000e+01 1.128634200000e+01 4.793530499999e+00
Si   1.305865800000e+01 3.040690499999e+00 -4.793530499999e+00
O    2.688174900000e+01 8.622998999999e+00 6.086249999999e+00
O    2.789450100000e+01 -2.536749000000e+00 6.086249999999e+00
O    2.688174900000e+01 -3.549500999999e+00 -6.086249999999e+00
O    1.572200100000e+01 -2.536749000000e+00 -6.086249999999e+00
O    1.817597700000e+01 6.003476999999e+00 8.693599499999e+00
O    1.834152300000e+01 6.169022999999e+00 -8.693599499999e+00
O    1.470924900000e+01 9.635750999998e+00 0.000000000000e+00
O    3.051402299999e+01 6.169022999999e+00 3.478900499999e+00
O    1.817597700000e+01 -6.169022999999e+00 -3.478900499999e+00
O    2.515081950000e+01 7.941338999999e+00 7.941338999999e+00
O    1.640366100000e+01 -8.058194999999e-01 -7.941338999999e+00
Si   1.955146950000e+01 -6.972407999999e+00 3.045559499999e+00
Si   3.131740799999e+01 4.793530499999e+00 -3.045559499999e+00
O    1.825875000000e+01 3.549500999999e+00 9.635750999998e+00
O    2.079549900000e+01 1.217250000000e+01 3.549500999999e+00
O    1.217250000000e+01 3.549500999999e+00 -3.549500999999e+00
O    2.079549900000e+01 6.086249999999e+00 -9.635750999998e+00
Si   2.563771950000e+01 9.131809499998e+00 6.972407999999e+00
Si   1.521319050000e+01 -1.292719500000e+00 -6.972407999999e+00
O    3.123706949999e+01 1.855089000000e+00 4.231160999999e+00
O    2.248991100000e+01 -6.892069499999e+00 -4.231160999999e+00
O    1.834152300000e+01 1.208972700000e+01 2.607349500000e+00
O    1.225527300000e+01 6.003476999999e+00 -2.607349500000e+00
Si   3.172396949999e+01 8.861579999999e-01 3.040690499999e+00
Si   2.345884200000e+01 -7.378969499999e+00 -3.040690499999e+00
O    2.442777300000e+01 6.003476999999e+00 9.565150499998e+00
O    1.834152300000e+01 -8.277299999998e-02 -9.565150499998e+00
O    3.217678649999e+01 1.777185000000e+00 1.777185000000e+00
O    2.256781500000e+01 -7.831786499999e+00 -1.777185000000e+00
O    2.865406500000e+01 4.309064999999e+00 7.831786499999e+00
O    2.003593500000e+01 -4.309064999999e+00 -7.831786499999e+00
O    2.256781500000e+01 4.340713499999e+00 1.039531500000e+01
O    2.000428650000e+01 1.777185000000e+00 -1.039531500000e+01
